STAAD SPACE DXF IMPORT OF 2 STORY BUILDING.DXF
START JOB INFORMATION
ENGINEER DATE 27-Jun-16
JOB NAME one story building
JOB NO 1
JOB REV 1
JOB REF IS code
END JOB INFORMATION
INPUT WIDTH 79
UNIT METER KN
JOINT COORDINATES
1 -139.87 0 85.0339; 2 -139.87 3.6 85.0339; 3 -121.27 0 85.0339;
4 -121.27 3.6 85.0339; 5 -121.27 0 56.7339; 6 -121.27 3.6 56.7339;
7 -139.87 0 56.7339; 8 -139.87 3.6 56.7339; 9 -121.27 0 81.8339;
10 -121.27 3.6 81.8339; 11 -121.27 0 78.6339; 12 -121.27 3.6 78.6339;
13 -121.27 0 61.7339; 14 -121.27 3.6 61.7339; 15 -121.27 0 75.4339;
16 -121.27 3.6 75.4339; 17 -121.27 0 71.3339; 18 -121.27 3.6 71.3339;
19 -121.27 0 68.1339; 20 -121.27 3.6 68.1339; 21 -121.27 0 64.9339;
22 -121.27 3.6 64.9339; 23 -139.87 0 81.8339; 24 -139.87 3.6 81.8339;
25 -139.87 0 78.6339; 26 -139.87 3.6 78.6339; 27 -139.87 0 61.7339;
28 -139.87 3.6 61.7339; 29 -139.87 0 75.4339; 30 -139.87 3.6 75.4339;
31 -139.87 0 71.3339; 32 -139.87 3.6 71.3339; 33 -139.87 0 68.1339;
34 -139.87 3.6 68.1339; 35 -139.87 0 64.9339; 36 -139.87 3.6 64.9339;
37 -127.72 0 56.7339; 38 -127.72 3.6 56.7339; 39 -129.52 0 56.7339;
40 -129.52 3.6 56.7339; 41 -133.42 0 56.7339; 42 -133.42 3.6 56.7339;
43 -127.72 0 85.0339; 44 -127.72 3.6 85.0339; 45 -133.42 0 85.0339;
46 -133.42 3.6 85.0339; 47 -127.72 0 81.8339; 48 -127.72 3.6 81.8339;
49 -133.42 0 81.8339; 50 -133.42 3.6 81.8339; 51 -127.72 0 78.6339;
52 -127.72 3.6 78.6339; 53 -133.42 0 78.6339; 54 -133.42 3.6 78.6339;
55 -127.72 0 61.7339; 56 -127.72 3.6 61.7339; 57 -129.52 0 61.7339;
58 -129.52 3.6 61.7339; 59 -133.42 0 61.7339; 60 -133.42 3.6 61.7339;
# ... 20 like lines cut
MEMBER INCIDENCES
1 1 2; 2 3 4; 3 5 6; 4 7 8; 5 9 10; 6 11 12; 7 13 14; 8 15 16; 9 17 18;
10 19 20; 11 21 22; 12 23 24; 13 25 26; 14 27 28; 15 29 30; 16 31 32; 17 33 34;
18 35 36; 19 37 38; 20 39 40; 21 41 42; 22 43 44; 23 45 46; 24 47 48; 25 49 50;
26 51 52; 27 53 54; 28 55 56; 29 57 58; 30 59 60; 31 61 62; 32 63 64; 33 65 66;
34 67 68; 35 69 70; 36 71 72; 37 73 74; 38 75 76; 39 77 78; 40 2 24; 41 24 26;
42 26 30; 43 30 32; 44 32 34; 45 34 36; 46 36 28; 47 28 8; 48 4 10; 49 10 12;
50 12 16; 51 16 18; 52 18 20; 53 20 22; 54 22 14; 55 14 6; 56 44 48; 57 48 52;
58 52 79; 59 79 74; 60 74 68; 61 68 62; 62 62 56; 63 56 38; 64 46 50; 65 50 54;
66 54 80; 67 80 78; 68 78 72; 69 72 66; 70 66 60; 71 60 42; 72 81 80; 73 82 79;
74 83 84; 75 84 76; 76 76 70; 77 70 64; 78 64 58; 79 58 40; 80 2 46; 81 46 44;
82 44 4; 83 24 50; 84 50 48; 85 48 10; 86 26 54; 87 54 52; 88 52 12; 89 30 80;
90 80 79; 91 79 16; 92 32 78; 93 78 74; 94 74 18; 95 34 72; 96 72 68; 97 68 20;
98 36 66; 99 66 62; 100 62 22; 101 28 60; 102 60 56; 103 56 14; 104 8 42;
105 42 38; 106 38 6; 107 4 85; 108 6 86; 109 10 87; 110 12 88; 111 14 89;
112 16 90; 113 18 91; 114 20 92; 115 22 93; 116 38 94; 117 40 95; 118 44 96;
119 48 97; 120 52 98; 121 56 99; 122 58 100; 123 60 101; 124 62 102;
125 64 103; 126 66 104; 127 68 105; 128 70 106; 129 72 107; 130 74 108;
131 76 109; 132 78 110; 133 85 87; 134 87 88; 135 88 90; 136 90 91; 137 91 92;
138 92 93; 139 93 89; 140 89 86; 141 96 97; 142 97 98; 143 98 111; 144 111 108;
145 108 105; 146 105 102; 147 102 99; 148 99 94; 149 112 110; 150 110 107;
# ... 7 like lines cut
DEFINE MATERIAL START
ISOTROPIC CONCRETE
E 2.17184e+007
POISSON 0.17
DENSITY 23.6158
ALPHA 5e-006
DAMP 0.05
TYPE CONCRETE
STRENGTH FCU 27578.9
END DEFINE MATERIAL
MEMBER PROPERTY AMERICAN
1 TO 18 107 TO 115 PRIS YD 0.6 ZD 0.3
19 TO 28 30 31 33 34 36 37 39 72 73 116 TO 121 123 124 126 127 129 130 132 -
153 154 181 TO 183 PRIS YD 0.3 ZD 0.3
29 32 35 38 74 122 125 128 131 155 PRIS YD 0.3
80 TO 106 161 TO 180 187 TO 189 PRIS YD 0.52 ZD 0.3
40 TO 71 75 TO 79 133 TO 152 156 TO 160 184 TO 186 PRIS YD 0.45 ZD 0.3
CONSTANTS
MATERIAL CONCRETE ALL
SUPPORTS
1 3 5 7 9 11 13 15 17 19 21 23 25 27 29 31 33 35 37 39 41 43 45 47 49 51 53 -
55 57 59 61 63 65 67 69 71 73 75 77 81 TO 83 FIXED
DEFINE 1893 LOAD
ZONE 0.36 RF 5 I 1.5 SS 2 ST 1 DT 1.2
SELFWEIGHT 1 
MEMBER WEIGHT
48 TO 63 81 82 105 106 UNI 15
40 TO 47 64 TO 71 80 81 104 105 133 TO 140 149 TO 152 160 161 164 172 174 -
175 184 TO 186 189 UNI 4
FLOOR WEIGHT
YRANGE 3 7.5 FLOAD -7
YRANGE 3 4 FLOAD -1.5
YRANGE 3 4 FLOAD 7 XRANGE -133.42 -129.552 ZRANGE 56.734 74.434
YRANGE 3 4 FLOAD 1.5 XRANGE -133.42 -129.52 ZRANGE 56.734 74.434
LOAD 1 LOADTYPE Seismic  TITLE EQ X DIRECTION
1893 LOAD X 1
LOAD 2 LOADTYPE Seismic  TITLE EQ Z DIRECTION
1893 LOAD Z 1
LOAD 3 LOADTYPE Dead  TITLE DEAD LOAD
SELFWEIGHT Y -1 
MEMBER LOAD
48 TO 63 81 82 105 106 UNI GY -15
FLOOR LOAD
YRANGE 3 7.5 FLOAD -7 GY
MEMBER LOAD
40 TO 47 64 TO 71 80 104 105 133 TO 140 149 TO 152 160 161 164 172 174 175 -
184 TO 186 189 UNI GY -4
FLOOR LOAD
YRANGE 3 4 FLOAD 7 XRANGE -133.42 -129.52  ZRANGE 56.734 74.434  GY
LOAD 4 LOADTYPE Live REDUCIBLE TITLE LIVE LOAD
FLOOR LOAD
YRANGE 3 7.5 FLOAD -3.5 GY
YRANGE 3 4 FLOAD 3.5 XRANGE -133.42 -129.52  ZRANGE 56.734 74.434  GY
LOAD COMB 5 GENERATED INDIAN CODE GENRAL_STRUCTURES 1
3 1.5 4 1.5 
LOAD COMB 6 GENERATED INDIAN CODE GENRAL_STRUCTURES 2
3 1.2 4 1.2 
LOAD COMB 7 GENERATED INDIAN CODE GENRAL_STRUCTURES 3
3 1.2 4 1.2 1 1.2 
LOAD COMB 8 GENERATED INDIAN CODE GENRAL_STRUCTURES 4
3 1.2 4 1.2 2 1.2 
LOAD COMB 9 GENERATED INDIAN CODE GENRAL_STRUCTURES 5
3 1.2 4 1.2 1 -1.2 
LOAD COMB 10 GENERATED INDIAN CODE GENRAL_STRUCTURES 6
3 1.2 4 1.2 2 -1.2 
LOAD COMB 11 GENERATED INDIAN CODE GENRAL_STRUCTURES 7
3 1.5 
LOAD COMB 12 GENERATED INDIAN CODE GENRAL_STRUCTURES 8
3 1.5 1 1.5 
LOAD COMB 13 GENERATED INDIAN CODE GENRAL_STRUCTURES 9
3 1.5 2 1.5 
LOAD COMB 14 GENERATED INDIAN CODE GENRAL_STRUCTURES 10
3 1.5 1 -1.5 
LOAD COMB 15 GENERATED INDIAN CODE GENRAL_STRUCTURES 11
3 1.5 2 -1.5 
LOAD COMB 16 GENERATED INDIAN CODE GENRAL_STRUCTURES 12
3 0.9 1 1.5 
LOAD COMB 17 GENERATED INDIAN CODE GENRAL_STRUCTURES 13
3 0.9 2 1.5 
LOAD COMB 18 GENERATED INDIAN CODE GENRAL_STRUCTURES 14
3 0.9 1 -1.5 
LOAD COMB 19 GENERATED INDIAN CODE GENRAL_STRUCTURES 15
3 0.9 2 -1.5 
PERFORM ANALYSIS PRINT ALL
START CONCRETE DESIGN
CODE INDIAN
FC 20000 ALL
FYMAIN 500000 ALL
FYSEC 500000 ALL
DESIGN BEAM 40 TO 71 75 TO 106 133 TO 152 156 TO 180 184 TO 189
DESIGN COLUMN 1 TO 39 72 TO 74 107 TO 132 153 TO 155 181 TO 183
END CONCRETE DESIGN
FINISH
